RC Circuit Time Domain
Vin  in  0  SIN(0 1.0 50.0)
R1   in  out  1000.0
C1   out  0   1.00e-06  IC=0
.SAVE v(in) v(out)
.TRAN 2.000000e-05 1.000000e-01  UIC
.END
