RC Circuit Frequency Response
Vin  in  0  AC  1
R1   in  out  1000.0
C1   out  0   1.00e-06
.SAVE v(in) v(out)
.AC DEC 100 1 1.00e+06
.END
