RC Circuit Frequency Response
Vin  in  0  AC  1
R1   in  out  $R
C1   out  0   $C
.SAVE v(in) v(out)
.AC DEC $NPD $FSTART $FSTOP
.END
