RC High-Pass Filter
Vin  in  0  AC  1
C1   in  out  $C
R1   out  0   $R
.SAVE v(in) v(out)
.AC DEC $NPD $FSTART $FSTOP
.END