DC Circuit 1 — Sweep
Vs  A  0  DC 1
R1  A  B  5
R2  B  0  10
R3  B  C  5
R4  C  0  5
Is  C  0  DC 2
.SAVE v(a) v(b) v(c)
.DC Vs 1.0 5.0 0.2
.END
